/batch
/config,noeldb,1     ! force off writing results to database
*get,_wallstrt,active,,time,wall
! ANSYS input file written by Workbench version 2024 R2
! File used for geometry attach: C:\Users\Hrishi\Downloads\finalknuckle.SLDPRT
/title,wbnew--Static Structural (A5)
! ****** Begin Custom Load Command Snippet ******
/COM, ACT Extensions:
/COM,     LSDYNA, 2024.2
/COM,     5f463412-bd3e-484b-87e7-cbc0a665e474, wbex
/COM,/COM,     ANSYSMotion, 2024.2
/COM,     20180725-3f81-49eb-9f31-41364844c769, wbex
/COM,
! ****** End   Custom Load Command Snippet ******
*DIM,_wb_ProjectScratch_dir,string,248
_wb_ProjectScratch_dir(1) = 'C:\Users\Hrishi\AppData\Local\Temp\WB_Hrishi_24556_2\_ProjectScratch\ScrD01B\'
*DIM,_wb_SolverFiles_dir,string,248
_wb_SolverFiles_dir(1) = 'C:\Users\Hrishi\AppData\Local\Temp\WB_Hrishi_24556_2\wbnew_files\dp0\SYS\MECH\'
*DIM,_wb_userfiles_dir,string,248
_wb_userfiles_dir(1) = 'C:\Users\Hrishi\AppData\Local\Temp\WB_Hrishi_24556_2\wbnew_files\user_files\'
/com,--- Data in consistent NMM units. See Solving Units in the help system for more information.
/units,MPA
/nopr
/wb,file,start              !  signify a WB generated input file
/prep7
! Turn off shape checking because checks already performed inside WB mesher.
! See help system for more information.
SHPP,OFF,,NOWARN
/nolist
etcon,set             ! allow ANSYS to choose best KEYOP's for 180x elements, resets any applicable keyopt to MAPDL defaults
/com,*********** Nodes for the whole assembly ***********
nblock,3,,5008
(1i9,3e20.9e3)
        1    -2.000000000E+01     8.292893219E+01     2.928932188E+00
        2    -2.000000000E+01     1.146710678E+02     3.467106781E+01
        3    -2.000000000E+01     8.927735931E+01     9.277359313E+00
        4    -2.000000000E+01     9.562578644E+01     1.562578644E+01
        5    -2.000000000E+01     1.019742136E+02     2.197421356E+01
        6    -2.000000000E+01     1.083226407E+02     2.832264069E+01
        7    -2.000000000E+01     7.585786438E+01     0.000000000E+00
        8    -2.000000000E+01     4.031128874E+01     0.000000000E+00
        9    -2.000000000E+01     6.697122047E+01     0.000000000E+00
       10    -2.000000000E+01     5.808457656E+01     0.000000000E+00
       11    -2.000000000E+01     4.919793265E+01     0.000000000E+00
       12    -2.000000000E+01     4.031128874E+01     2.000000000E+01
       13    -2.000000000E+01     4.031128874E+01     1.000000000E+01
       14    -2.000000000E+01     7.585786438E+01     2.000000000E+01
       15    -2.000000000E+01     6.697122047E+01     2.000000000E+01
       16    -2.000000000E+01     5.808457656E+01     2.000000000E+01
       17    -2.000000000E+01     4.919793265E+01     2.000000000E+01
       18    -2.000000000E+01     8.292893219E+01     2.292893219E+01
       19    -2.000000000E+01     1.009404559E+02     4.094045586E+01
       20    -2.000000000E+01     9.493661464E+01     3.493661464E+01
! ... 4534 like lines cut
/wb,elem,start            !  set before creation of elements
/com,*********** Elements for Body 1 'finalknuckle' ***********
et,1,187
eblock,19,solid,,2298
(19i9)
        1        1        1        1        0        0        0        0       10        0        1      372      707      793      710     2956     4408     2959     2957
     4405     4420
        1        1        1        1        0        0        0        0       10        0        2      372      387      793      707     2954     3008     2959     2956
     3006     4408
        1        1        1        1        0        0        0        0       10        0        3      128      406      793      710     1536     3098     1547     1541
     3095     4420
        1        1        1        1        0        0        0        0       10        0        4      128      455      793      406     1538     3275     1547     1536
     3093     3098
        1        1        1        1        0        0        0        0       10        0        5      593      793      707      767     3882     4408     3879     3880
     4547     4406
        1        1        1        1        0        0        0        0       10        0        6      387      593      793      707     3005     3882     3008     3006
     3879     4408
        1        1        1        1        0        0        0        0       10        0        7      707      793      710      767     4408     4420     4405     4406
     4547     4419
        1        1        1        1        0        0        0        0       10        0        8      361      455      793      387     2897     3275     2899     2896
     3004     3008
        1        1        1        1        0        0        0        0       10        0        9      128      710      793      767     1541     4420     1547     1545
     4419     4547
        1        1        1        1        0        0        0        0       10        0       10      128      593      793      387     1540     3882     1547     1535
     3005     3008
! ... 4577 like lines cut
! Material Id = {1372C28C-F14F-4C43-9822-E65A98DC4889}
/wb,elem,end               !  done creating elements
/com,*********** Send User Defined Coordinate System(s) ***********
csys,0
toffst,273.15,      ! Temperature offset from absolute zero
/com,*********** Set Reference Temperature ***********
tref,22.
/wb,mat,start              !  starting to send materials
/com,*********** Send Materials ***********
Temperature = 'TEMP' ! Temperature
MP,DENS,1,2.804e-09,	! tonne mm^-3
MP,C,1,848000000,	! mm^2 s^-2 C^-1
MP,EX,1,71807.0617906684,	! tonne s^-2 mm^-1
MP,NUXY,1,0.329760403530895,
MP,UVID,1,3ab8ef9e-1cd3-4bd6-8942-e53145f65fb9
MP,UMID,1,e6369d37-9a7b-48dd-ba02-24023537f03d

/wb,mat,end                !  done sending materials
!************************* Model Summary ********************
!finalknuckle,	AL 7075-T6,	matid,	1
!************************* End Model Summary ********************
! get the diagonal of the bounding box. Needed later for other things
*get,_xmin,node,,mnloc,x
*get,_ymin,node,,mnloc,y
*get,_zmin,node,,mnloc,z
*get,_xmax,node,,mxloc,x
*get,_ymax,node,,mxloc,y
*get,_zmax,node,,mxloc,z
_ASMDIAG=(_xmax-_xmin)*(_xmax-_xmin)+(_ymax-_ymin)*(_ymax-_ymin)+(_zmax-_zmin)*(_zmax-_zmin)
_ASMDIAG=SQRT(_ASMDIAG)
/wb,contact,start          !  starting to send contact
/wb,contact,end            !  done creating contacts
/golist
/wb,load,start             !  starting to send loads
/com,*********** Fixed Supports ***********
CMBLOCK,_FIXEDSU,NODE,       96
(8i10)
       219       220       221       222       223       224       225       226
       240       241       242       243       244       245       246       247
       261       262       263       264       265       266       267       268
       282       283       284       285       286       287       288       289
      2114      2115      2118      2120      2125      2126      2130      2131
      2132      2136      2137      2138      2143      2144      2145      2146
      2150      2151      2152      2156      2157      2158      2165      2166
      2231      2232      2236      2240      2243      2248      2252      2256
      2333      2334      2335      2339      2340      2341      2345      2346
      2347      2351      2353      2354      2358      2362      2363      2364
      2367      2369      2370      2371      2375      2376      2379      2380
      2450      2451      2455      2459      2462      2466      2471      2475

cmsel,s,_FIXEDSU
d,all,all
nsel,all
/com,*********** Define Force Using Surface Effect Elements ***********
local,12,0,0.,0.,0.,0.,0.,0.
csys,0
et,2,154
mat,2
eblock,10,,,16
(15i9)
     3633        2        2        2       12      367      376      380      380     2931     2970      380     2933
     3634        2        2        2       12      365      368      378      378     2919     2937      378     2923
     3635        2        2        2       12      363      376      367      367     2910     2931      367     2908
     3636        2        2        2       12      378      368      381      381     2937     2938      381     2977
     3637        2        2        2       12      364      367      377      377     2912     2932      377     2915
     3638        2        2        2       12      368      364      381      381     2913     2916      381     2938
     3639        2        2        2       12      377      367      380      380     2932     2933      380     2972
     3640        2        2        2       12      377      381      364      364     2973     2916      364     2915
     3641        2        2        2       12      366      375      379      379     2926     2964      379     2927
     3642        2        2        2       12      363      366      379      379     2907     2927      379     2911
     3643        2        2        2       12      369      378      382      382     2941     2978      382     2942
     3644        2        2        2       12      362      369      382      382     2901     2942      382     2903
     3645        2        2        2       12      362      375      366      366     2902     2926      366     2900
     3646        2        2        2       12      379      376      363      363     2969     2910      363     2911
     3647        2        2        2       12      365      378      369      369     2923     2941      369     2920
     3648        2        2        2       12      382      375      362      362     2965     2902      362     2903
-1
esel,s,type,,2
keyop,2,2,1         ! Apply load in local coordinate system
keyop,2,7,1         ! Use original area so load is constant in large deformation
esel,all
/com,*********** Define Force Using Surface Effect Elements ***********
local,13,0,0.,0.,0.,0.,0.,0.
csys,0
et,3,154
mat,3
eblock,10,,,16
(15i9)
     3649        3        3        3       13      367      376      380      380     2931     2970      380     2933
     3650        3        3        3       13      365      368      378      378     2919     2937      378     2923
     3651        3        3        3       13      363      376      367      367     2910     2931      367     2908
     3652        3        3        3       13      378      368      381      381     2937     2938      381     2977
     3653        3        3        3       13      364      367      377      377     2912     2932      377     2915
     3654        3        3        3       13      368      364      381      381     2913     2916      381     2938
     3655        3        3        3       13      377      367      380      380     2932     2933      380     2972
     3656        3        3        3       13      377      381      364      364     2973     2916      364     2915
     3657        3        3        3       13      366      375      379      379     2926     2964      379     2927
     3658        3        3        3       13      363      366      379      379     2907     2927      379     2911
     3659        3        3        3       13      369      378      382      382     2941     2978      382     2942
     3660        3        3        3       13      362      369      382      382     2901     2942      382     2903
     3661        3        3        3       13      362      375      366      366     2902     2926      366     2900
     3662        3        3        3       13      379      376      363      363     2969     2910      363     2911
     3663        3        3        3       13      365      378      369      369     2923     2941      369     2920
     3664        3        3        3       13      382      375      362      362     2965     2902      362     2903
-1
esel,s,type,,3
keyop,3,2,1         ! Apply load in local coordinate system
keyop,3,7,1         ! Use original area so load is constant in large deformation
esel,all
/com,*********** Define Force Using Surface Effect Elements ***********
local,14,0,0.,0.,0.,0.,0.,0.
csys,0
et,4,154
mat,4
eblock,10,,,32
(15i9)
     3665        4        4        4       14      262      261      282      282     2333     2335      282     2340
     3666        4        4        4       14      265      264      287      287     2351     2353      287     2364
     3667        4        4        4       14      266      265      285      285     2358     2362      285     2371
     3668        4        4        4       14      261      268      282      282     2334     2379      282     2335
     3669        4        4        4       14      283      282      268      268     2450     2379      268     2380
     3670        4        4        4       14      286      285      265      265     2462     2362      265     2363
     3671        4        4        4       14      287      286      265      265     2466     2363      265     2364
     3672        4        4        4       14      282      289      262      262     2451     2341      262     2340
     3673        4        4        4       14      264      263      288      288     2345     2346      288     2354
     3674        4        4        4       14      268      267      283      283     2375     2376      283     2380
     3675        4        4        4       14      285      284      266      266     2459     2370      266     2371
     3676        4        4        4       14      288      287      264      264     2471     2353      264     2354
     3677        4        4        4       14      289      288      263      263     2475     2346      263     2347
     3678        4        4        4       14      263      262      289      289     2339     2341      289     2347
     3679        4        4        4       14      267      266      283      283     2367     2369      283     2376
     3680        4        4        4       14      284      283      266      266     2455     2369      266     2370
     3681        4        4        4       14      244      243      223      223     2243     2144      223     2145
     3682        4        4        4       14      241      240      226      226     2231     2165      226     2166
     3683        4        4        4       14      245      244      223      223     2248     2145      223     2146
     3684        4        4        4       14      240      247      220      220     2232     2126      220     2125
! ... 13 like lines cut
esel,s,type,,4
keyop,4,2,1         ! Apply load in local coordinate system
keyop,4,7,1         ! Use original area so load is constant in large deformation
esel,all
/gst,on,on
fini
*get,_numnode,node,0,count
*get,_numelem,elem,0,count
*get, _MAXELEMNUM, elem, 0, NUM, MAX
*get, _MAXNODENUM, node, 0, NUM, MAX
*get, _MAXELEMTYPE, etyp, 0, NUM, MAX
*get, _MAXREALCONST, rcon, 0, NUM, MAX
/go
/wb,load,end               !  done creating loads
/com,--- Number of total nodes = %_numnode%
/com,--- Number of contact elements = 64
/com,--- Number of spring elements = 0
/com,--- Number of bearing elements = 0
/com,--- Number of solid elements = 2298
/com,--- Number of condensed parts = 0
/com,--- Number of total elements = %_numelem%
*get,_wallbsol,active,,time,wall
/com,****************************************************************************
/com,*************************    SOLUTION       ********************************
/com,****************************************************************************
/solu
antype,0                   ! static analysis
_thickRatio=  1     ! Ratio of thick parts in the model
eqsl,pcg,1e-8,,,,,,1
cntr,print,1               ! print out contact info and also make no initial contact an error
cncheck,dmp		!	Enable program controlled contact splitting for distributed memory parallel run
dmpoption,emat,no             ! Don't combine emat file for DANSYS
dmpoption,esav,no             ! Don't combine esav file for DANSYS
nldiag,cont,iter           ! print out contact info each equilibrium iteration
rescontrol,,none                 ! Do not keep any restart files
/com,****************************************************
/com,******************* SOLVE FOR LS 1 OF 1 ****************
esel,s,type,,2
nsle
sfe,all,1,pres,1,0.
sfe,all,2,pres,1,0.
sfe,all,3,pres,1,-0.349395548463411
esel,s,type,,3
nsle
sfe,all,1,pres,1,-3.54410795570542
sfe,all,2,pres,1,0.
sfe,all,3,pres,1,0.
esel,s,type,,4
nsle
sfe,all,1,pres,1,0.
sfe,all,2,pres,1,-0.456268424517174
sfe,all,3,pres,1,0.
nsel,all
esel,all
/nopr
/gopr
nsub,1,1,1
time,1.
outres,erase
outres,all,none
outres,nsol,all,
outres,rsol,all
outres,eangl,all
outres,etmp,all
outres,veng,all
outres,strs,all,
outres,epel,all,
outres,eppl,all,
outres,cont,all,
! *********** WB SOLVE COMMAND ***********
! check interactive state
*get,ANSINTER_,active,,int
*if,ANSINTER_,ne,0,then
/eof
*endif
solve
/com *************** Write FE CONNECTORS ********* 
CEWRITE,file,ce,,INTE
/com,****************************************************
/com,*************** FINISHED SOLVE FOR LS 1 *************
*get,_wallasol,active,,time,wall
/nopr
*get,_numnode,node,0,count
*get,_numelem,elem,0,count
*get, _MAXELEMNUM, elem, 0, NUM, MAX
*get, _MAXNODENUM, node, 0, NUM, MAX,,,INTERNAL
*get, _MAXELEMTYPE, etyp, 0, NUM, MAX
*get, _MAXREALCONST, rcon, 0, NUM, MAX
*get,_NSOLTHREADS,active,0,ntfs
*get,_NSOLPROCESSES,active,0,npfs
/gopr
*get,_PCGITER,active,,solu,cgiter
/post1
xmlo,ENCODING,ISO-8859-1
xmlo,parm
/xml,parm,xml
fini
/gopr
*get,_walldone,active,,time,wall
_preptime=(_wallbsol-_wallstrt)*3600
_solvtime=(_wallasol-_wallbsol)*3600
_posttime=(_walldone-_wallasol)*3600
_totaltim=(_walldone-_wallstrt)*3600
*get,_dlbratio,active,0,solu,dlbr
*get,_combtime,active,0,solu,comb
*get,_ssmode,active,0,solu,ssmm
*get,_ndofs,active,0,solu,ndof
*get,_sol_end_time,active,0,set,time
*if,_sol_end_time,eq,1.000000,then
/fclean				!clean distributed files
*endif
/com,--- Total number of nodes = %_numnode%
/com,--- Total number of elements = %_numelem%
/com,--- Element load balance ratio = %_dlbratio%
/com,--- Time to combine distributed files = %_combtime%
/com,--- Sparse memory mode = %_ssmode%
/com,--- Number of DOF = %_ndofs%
/wb,file,end               ! done with WB generated input
