/batch
/config,noeldb,1     ! force off writing results to database
*get,_wallstrt,active,,time,wall
! ANSYS input file written by Workbench version 2024 R2
! File used for geometry attach: C:\Users\Hrishi\Downloads\BRAKE ROTOR.step
/title,wbnew--Steady-State Thermal (A5)
! ****** Begin Custom Load Command Snippet ******
/COM, ACT Extensions:
/COM,     LSDYNA, 2024.2
/COM,     5f463412-bd3e-484b-87e7-cbc0a665e474, wbex
/COM,/COM,     ANSYSMotion, 2024.2
/COM,     20180725-3f81-49eb-9f31-41364844c769, wbex
/COM,
! ****** End   Custom Load Command Snippet ******
*DIM,_wb_ProjectScratch_dir,string,248
_wb_ProjectScratch_dir(1) = 'C:\Users\Hrishi\AppData\Local\Temp\WB_Hrishi_26272_2\_ProjectScratch\ScrF28C\'
*DIM,_wb_SolverFiles_dir,string,248
_wb_SolverFiles_dir(1) = 'C:\Users\Hrishi\AppData\Local\Temp\WB_Hrishi_26272_2\wbnew_files\dp0\SYS\MECH\'
*DIM,_wb_userfiles_dir,string,248
_wb_userfiles_dir(1) = 'C:\Users\Hrishi\AppData\Local\Temp\WB_Hrishi_26272_2\wbnew_files\user_files\'
/com,--- Data in consistent NMM units. See Solving Units in the help system for more information.
/units,MPA
/nopr
/wb,file,start              !  signify a WB generated input file
/prep7
! Turn off shape checking because checks already performed inside WB mesher.
! See help system for more information.
SHPP,OFF,,NOWARN
/nolist
etcon,set             ! allow ANSYS to choose best KEYOP's for 180x elements, resets any applicable keyopt to MAPDL defaults
/com,*********** Nodes for the whole assembly ***********
nblock,3,,7095
(1i9,3e20.9e3)
        1     7.620000000E+01     0.000000000E+00     4.800000000E+00
        2     7.554809844E+01     9.946095847E+00     4.800000000E+00
        3     7.360354796E+01     1.972201124E+01     4.800000000E+00
        4     7.039962038E+01     2.916047755E+01     4.800000000E+00
        5     6.599113577E+01     3.810000000E+01     4.800000000E+00
        6     6.045352453E+01     4.638762089E+01     4.800000000E+00
        7     5.388153673E+01     5.388153673E+01     4.800000000E+00
        8     4.638762089E+01     6.045352453E+01     4.800000000E+00
        9     3.810000000E+01     6.599113577E+01     4.800000000E+00
       10     2.916047755E+01     7.039962038E+01     4.800000000E+00
       11     1.972201124E+01     7.360354796E+01     4.800000000E+00
       12     9.946095847E+00     7.554809844E+01     4.800000000E+00
       13    -2.158570320E-14     7.620000000E+01     4.800000000E+00
       14    -9.946095847E+00     7.554809844E+01     4.800000000E+00
       15    -1.972201124E+01     7.360354796E+01     4.800000000E+00
       16    -2.916047755E+01     7.039962038E+01     4.800000000E+00
       17    -3.810000000E+01     6.599113577E+01     4.800000000E+00
       18    -4.638762089E+01     6.045352453E+01     4.800000000E+00
       19    -5.388153673E+01     5.388153673E+01     4.800000000E+00
       20    -6.045352453E+01     4.638762089E+01     4.800000000E+00
! ... 6431 like lines cut
/wb,elem,start            !  set before creation of elements
/com,*********** Elements for Body 1 'BRAKE ROTOR-FreeParts|Body1' ***********
et,1,291
eblock,19,solid,,2815
(19i9)
        1        1        1        1        0        0        0        0       10        0        1      795     1218      891     1113     5465     5773     5463     5464
     6401     5772
        1        1        1        1        0        0        0        0       10        0        2      891     1218      926     1113     5773     5840     5771     5772
     6401     5839
        1        1        1        1        0        0        0        0       10        0        3      514      795     1218      891     4288     5465     4293     4289
     5463     5773
        1        1        1        1        0        0        0        0       10        0        4      514     1218      926      891     4293     5840     4290     4289
     5773     5771
        1        1        1        1        0        0        0        0       10        0        5      790      926     1218     1113     5445     5840     5448     5447
     5839     6401
        1        1        1        1        0        0        0        0       10        0        6      790     1218      795     1113     5448     5465     5444     5447
     6401     5464
        1        1        1        1        0        0        0        0       10        0        7      208      795     1218      514     2638     5465     2641     2636
     4288     4293
        1        1        1        1        0        0        0        0       10        0        8      199     1218      653     1153     2584     4921     2580     2583
     6433     4920
        1        1        1        1        0        0        0        0       10        0        9      653     1218     1004     1153     4921     6104     4918     4920
     6433     6102
        1        1        1        1        0        0        0        0       10        0       10      199     1218      650      653     2584     4903     2579     2580
     4921     4899
! ... 5611 like lines cut
! Material Id = {D50E97CD-ECD5-442A-8A2A-A9336EDFE508}
/wb,elem,end               !  done creating elements
/com,*********** Send User Defined Coordinate System(s) ***********
csys,0
toffst,273.15,      ! Temperature offset from absolute zero
/wb,mat,start              !  starting to send materials
/com,*********** Send Materials ***********
MP,KXX,1,60,	! tonne mm s^-3 C^-1
MP,UVID,1,8723b602-1e18-42c2-a3bb-c904df953009

/wb,mat,end                !  done sending materials
!************************* Model Summary ********************
!BRAKE ROTOR-FreeParts|Body1,	Moksha,	matid,	1
!************************* End Model Summary ********************
! get the diagonal of the bounding box. Needed later for other things
*get,_xmin,node,,mnloc,x
*get,_ymin,node,,mnloc,y
*get,_zmin,node,,mnloc,z
*get,_xmax,node,,mxloc,x
*get,_ymax,node,,mxloc,y
*get,_zmax,node,,mxloc,z
_ASMDIAG=(_xmax-_xmin)*(_xmax-_xmin)+(_ymax-_ymin)*(_ymax-_ymin)+(_zmax-_zmin)*(_zmax-_zmin)
_ASMDIAG=SQRT(_ASMDIAG)
/wb,contact,start          !  starting to send contact
/wb,contact,end            !  done creating contacts
/golist
/wb,load,start             !  starting to send loads
/com,*********** Create "Heat Flux" ***********
et,2,152
eblock,10,,,1376
(15i9)
     5156        2        2        2        0       14      144      143      143     1333     2245      143     1332
     5157        2        2        2        0        7      355      354      354     1271     3483      354     1270
     5158        2        2        2        0       11       12       67       67     1304     1315       67     1307
     5159        2        2        2        0      368     1039     1043     1043     3566     6209     1043     3567
     5160        2        2        2        0        3        4      334      334     1238     1248      334     1240
     5161        2        2        2        0      106      339      107      107     2009     2019      107     2008
     5162        2        2        2        0       22      184      183      183     1407     2481      183     1406
     5163        2        2        2        0        7      354      353      353     1270     3477      353     1269
     5164        2        2        2        0      104     1039      371      371     1994     3583      371     1988
     5165        2        2        2        0       70      760       74       74     1757     1782       74     1753
     5166        2        2        2        0      352      856      366      366     3472     3551      366     3468
     5167        2        2        2        0        9       10      365      365     1289     1298      365     1292
     5168        2        2        2        0       13       56       12       12     1322     1313       12     1311
     5169        2        2        2        0       13       57       56       56     1323     1673       56     1322
     5170        2        2        2        0       34       35      245      245     1506     1519      245     1509
     5171        2        2        2        0       78      133       82       82     1804     1824       82     1803
     5172        2        2        2        0       78      763      133      133     1806     2193      133     1804
     5173        2        2        2        0       47       48      314      314     1616     1626      314     1620
     5174        2        2        2        0      368      371     1039     1039     3562     3583     1039     3566
     5175        2        2        2        0      101      757      374      374     1970     3600      374     1965
! ... 1357 like lines cut
esel,s,type,,2
keyop,2,8,1         ! include heat flux
esel,all
fcum,add                   ! add nodal forces up (needed in case have loads on the same edge,vertex)
fcum                       ! reset default on fcum command since done sending WB F loads
/com,*********** Create "Convection" ***********
et,3,152
eblock,10,,,1472
(15i9)
     6532        3        3        3        0       14      144      143      143     1333     2245      143     1332
     6533        3        3        3        0        7      355      354      354     1271     3483      354     1270
     6534        3        3        3        0       11       12       67       67     1304     1315       67     1307
     6535        3        3        3        0      368     1039     1043     1043     3566     6209     1043     3567
     6536        3        3        3        0        3        4      334      334     1238     1248      334     1240
     6537        3        3        3        0      106      339      107      107     2009     2019      107     2008
     6538        3        3        3        0       22      184      183      183     1407     2481      183     1406
     6539        3        3        3        0        7      354      353      353     1270     3477      353     1269
     6540        3        3        3        0      104     1039      371      371     1994     3583      371     1988
     6541        3        3        3        0       70      760       74       74     1757     1782       74     1753
     6542        3        3        3        0      352      856      366      366     3472     3551      366     3468
     6543        3        3        3        0        9       10      365      365     1289     1298      365     1292
     6544        3        3        3        0       13       56       12       12     1322     1313       12     1311
     6545        3        3        3        0       13       57       56       56     1323     1673       56     1322
     6546        3        3        3        0       34       35      245      245     1506     1519      245     1509
     6547        3        3        3        0       78      133       82       82     1804     1824       82     1803
     6548        3        3        3        0       78      763      133      133     1806     2193      133     1804
     6549        3        3        3        0       47       48      314      314     1616     1626      314     1620
     6550        3        3        3        0      368      371     1039     1039     3562     3583     1039     3566
     6551        3        3        3        0      101      757      374      374     1970     3600      374     1965
! ... 1453 like lines cut
esel,s,type,,3
keyop,3,8,2
keyop,3,13,0
esel,all
/com,***************** Define Uniform Initial temperature ***************
tunif,22.
/gst,on,on
fini
*get,_numnode,node,0,count
*get,_numelem,elem,0,count
*get, _MAXELEMNUM, elem, 0, NUM, MAX
*get, _MAXNODENUM, node, 0, NUM, MAX
*get, _MAXELEMTYPE, etyp, 0, NUM, MAX
*get, _MAXREALCONST, rcon, 0, NUM, MAX
/go
/wb,load,end               !  done creating loads
/com,--- Number of total nodes = %_numnode%
/com,--- Number of contact elements = 2848
/com,--- Number of spring elements = 0
/com,--- Number of bearing elements = 0
/com,--- Number of solid elements = 2815
/com,--- Number of condensed parts = 0
/com,--- Number of total elements = %_numelem%
*get,_wallbsol,active,,time,wall
/com,****************************************************************************
/com,*************************    SOLUTION       ********************************
/com,****************************************************************************
/solu
antype,0                   ! static analysis
!eqsl,sparse               ! using sparse solver which is default so no eqsl command needed
cntr,print,1               ! print out contact info and also make no initial contact an error
cncheck,dmp		!	Enable program controlled contact splitting for distributed memory parallel run
rescontrol,,none                 ! Do not keep any restart files
dmpoption,emat,no             ! Don't combine emat file for DANSYS
dmpoption,esav,no             ! Don't combine esav file for DANSYS
/com,****************************************************
/com,******************* SOLVE FOR LS 1 OF 1 ****************
esel,s,type,,2
nsle
sf,all,hflux,1850.
nsel,all
esel,all
esel,s,type,,3
nsle
sf,all,conv,2.3,22.
nsel,all
esel,all
/nopr
/gopr
autots,on
nsub,1,10,1
time,1.
outres,erase
outres,all,none
outres,nsol,all
outres,rsol,all
outres,eangl,all
outres,veng,all
outres,fflux,all,
outres,cont,all,
/nopr
esel,s,type,,3
cm,_elmisc,elem
esel,all
/gopr
outres,misc,all,_elmisc
cnvtol,heat,,1.e-003,,1.e-003 ! Program Controlled. Set MINREF equivalent of 1e-6 Watts
! *********** WB SOLVE COMMAND ***********
! check interactive state
*get,ANSINTER_,active,,int
*if,ANSINTER_,ne,0,then
/eof
*endif
solve
/com *************** Write FE CONNECTORS ********* 
CEWRITE,file,ce,,INTE
/com,****************************************************
/com,*************** FINISHED SOLVE FOR LS 1 *************
*get,_wallasol,active,,time,wall
/post1
xmlo,ENCODING,ISO-8859-1
xmlo,parm
/xml,parm,xml
fini
/gopr
*get,_walldone,active,,time,wall
_preptime=(_wallbsol-_wallstrt)*3600
_solvtime=(_wallasol-_wallbsol)*3600
_posttime=(_walldone-_wallasol)*3600
_totaltim=(_walldone-_wallstrt)*3600
*get,_dlbratio,active,0,solu,dlbr
*get,_combtime,active,0,solu,comb
*get,_ssmode,active,0,solu,ssmm
*get,_ndofs,active,0,solu,ndof
/fclean				!clean distributed files
/com,--- Total number of nodes = %_numnode%
/com,--- Total number of elements = %_numelem%
/com,--- Element load balance ratio = %_dlbratio%
/com,--- Time to combine distributed files = %_combtime%
/com,--- Sparse memory mode = %_ssmode%
/com,--- Number of DOF = %_ndofs%
/wb,file,end               ! done with WB generated input
